Version 4
SHEET 1 880 680
WIRE 240 16 -352 16
WIRE 240 128 240 16
WIRE -352 144 -352 16
WIRE 240 176 240 144
WIRE 160 208 -272 208
WIRE 192 208 160 208
WIRE -272 240 -272 208
WIRE 240 272 240 224
WIRE 160 352 160 208
WIRE 192 352 160 352
WIRE 208 352 192 352
WIRE -352 384 -352 224
WIRE -272 384 -272 320
WIRE -272 384 -352 384
WIRE 160 384 -272 384
WIRE 240 384 240 368
WIRE 240 384 160 384
WIRE 160 416 160 384
FLAG 160 416 0
SYMBOL pmos4 192 128 R0
SYMATTR InstName M1
SYMBOL nmos4 192 272 R0
SYMATTR InstName M2
SYMBOL voltage -352 128 R0
WINDOW 123 0 0 Left 0
WINDOW 39 0 0 Left 0
SYMATTR InstName V1
SYMATTR Value 1V
SYMBOL voltage -272 224 R0
WINDOW 123 0 0 Left 0
WINDOW 39 0 0 Left 0
SYMATTR InstName V2
SYMATTR Value PULSE(0 1 0 0 0 20ms 40ms 5)
TEXT -152 128 Left 2 !.tran 0 200ms 0
